     160
 i =       18, E =     -1867.1160819829
 Pb         0.0000000400       -0.0000001142        6.2506397956
 Pb         0.0000000415       -0.0000000501       18.7519196673
 Pb         4.3098949355        4.4258799687       18.7519196349
 Pb         4.3098949440        4.4258798508        6.2506398158
 Pb         0.0000000543       -0.0000000723       12.5012796583
 Pb         0.0000000312       -0.0000000417       -0.0000001267
 Pb         4.3098949488        4.4258799494       -0.0000001611
 Pb         4.3098949469        4.4258798966       12.5012796580
 Pb         0.0000000406        8.8517597736        6.2506398273
 Pb         0.0000000637        8.8517598410       18.7519196210
 Pb         4.3098949972       13.2776397601       18.7519196345
 Pb         4.3098950446       13.2776397570        6.2506397786
 Pb         0.0000000748        8.8517597851       12.5012797019
 Pb         0.0000000288        8.8517598446       -0.0000001817
 Pb         4.3098950438       13.2776398113       -0.0000001242
 Pb         4.3098950270       13.2776397364       12.5012797150
 Pb         8.6197901317       -0.0000001051        6.2506398155
 Pb         8.6197901725       -0.0000000283       18.7519196198
 Pb        12.9296852153        4.4258799345       18.7519196254
 Pb        12.9296851778        4.4258797984        6.2506398046
 Pb         8.6197901561       -0.0000000721       12.5012796911
 Pb         8.6197901392       -0.0000000286       -0.0000000907
 Pb        12.9296851957        4.4258798956       -0.0000001278
 Pb        12.9296851777        4.4258798608       12.5012796898
 Pb         8.6197901431        8.8517597911        6.2506397844
 Pb         8.6197901829        8.8517598523       18.7519196361
 Pb        12.9296852784       13.2776397072       18.7519196210
 Pb        12.9296852749       13.2776397204        6.2506397728
 Pb         8.6197901773        8.8517597815       12.5012797036
 Pb         8.6197901342        8.8517598593       -0.0000001147
 Pb        12.9296852834       13.2776397609       -0.0000000842
 Pb        12.9296852631       13.2776396946       12.5012797390
 Cs        17.1050232671        3.9219696763        3.1252490205
 Cs         0.1345568344       13.7815500733       21.8773103783
 Cs         4.1753383334        0.5039100678       21.8773103221
 Cs         4.4444520640        8.3478497182        3.1252490381
 Cs         0.1345568437       13.7815500414        9.3760306133
 Cs         4.1753382951        0.5039100276        9.3760305886
 Cs        17.1050232684        3.9219695841       15.6265287733
 Cs         4.4444520653        8.3478497042       15.6265288036
 Cs        17.1050233463       12.7737296733        3.1252490776
 Cs         0.1345568011        4.9297900395       21.8773102978
 Cs         4.1753383986        9.3556700218       21.8773103019
 Cs         4.4444519923       17.1996096021        3.1252490464
 Cs         0.1345567882        4.9297900016        9.3760305472
 Cs         4.1753384253        9.3556700002        9.3760305064
 Cs        17.1050233502       12.7737297127       15.6265288433
 Cs         4.4444519654       17.1996095746       15.6265288281
 Cs         8.4852331818        3.9219698067        3.1252490492
 Cs         8.7543470308       13.7815500077       21.8773104003
 Cs        12.7951281309        0.5039101295       21.8773103572
 Cs        13.0642419504        8.3478498020        3.1252490421
 Cs         8.7543470308       13.7815499045        9.3760306289
 Cs        12.7951281565        0.5039100736        9.3760306179
 Cs         8.4852331853        3.9219697773       15.6265287903
 Cs        13.0642419356        8.3478497812       15.6265287948
 Cs         8.4852332273       12.7737297281        3.1252490812
 Cs         8.7543470072        4.9297900164       21.8773103277
 Cs        12.7951281476        9.3556700841       21.8773103366
 Cs        13.0642419570       17.1996096689        3.1252490467
 Cs         8.7543470470        4.9297900617        9.3760305592
 Cs        12.7951281114        9.3556700773        9.3760305457
 Cs         8.4852332210       12.7737297366       15.6265288800
 Cs        13.0642419800       17.1996096335       15.6265288129
  I         1.6663071795        2.6917675117        6.6656893705
  I        15.5732730265       15.0117522152       18.3368700180
  I         5.9762021846        1.7341124047       18.3368700254
  I         2.6435877039        7.1176474762        6.6656893594
  I        15.5732305871       15.0117965911       12.9164567970
  I         1.6663496379        2.6917231623       24.5873824856
  I         2.6435452749        7.1176031239       24.5873825226
  I         5.9762446103        1.7341567685       12.9164567659
  I         1.6663071706        2.6917674926       19.1669692066
  I        15.5732730774       15.0117522300        5.8355901587
  I         5.9762021690        1.7341124092        5.8355902070
  I         2.6435877410        7.1176474635       19.1669691575
  I        15.5732306270       15.0117965811        0.4151769596
  I         1.6663496251        2.6917231681       12.0861026439
  I         2.6435453068        7.1176030932       12.0861026359
  I         5.9762446020        1.7341567832        0.4151768863
  I         1.6663073815       11.5435272999        6.6656893480
  I        15.5732728959        6.1599923928       18.3368701098
  I         5.9762022617       10.5858723252       18.3368700836
  I         2.6435877438       15.9694073791        6.6656893560
  I        15.5732304375        6.1600367792       12.9164566524
  I         1.6663498132       11.5434829424       24.5873825386
  I         2.6435453392       15.9693630319       24.5873824774
  I         5.9762447315       10.5859166782       12.9164566948
  I         1.6663073079       11.5435272649       19.1669691750
  I        15.5732728723        6.1599923945        5.8355902816
  I         5.9762022607       10.5858723402        5.8355902384
  I         2.6435877899       15.9694073535       19.1669692410
  I        15.5732304683        6.1600367740        0.4151768096
  I         1.6663498188       11.5434828813       12.0861026970
  I         2.6435453493       15.9693629766       12.0861026727
  I         5.9762446690       10.5859166942        0.4151768538
  I        10.2860972963        2.6917675955        6.6656893198
  I         6.9534829157       15.0117521979       18.3368700268
  I        14.5959923235        1.7341124017       18.3368700549
  I        11.2633778691        7.1176475272        6.6656892592
  I         6.9534404934       15.0117965480       12.9164568209
  I        10.2861397159        2.6917232658       24.5873825837
  I        11.2633354439        7.1176031340       24.5873826071
  I        14.5960347539        1.7341567715       12.9164567537
  I        10.2860972829        2.6917675842       19.1669691124
  I         6.9534829532       15.0117521943        5.8355901529
  I        14.5959923219        1.7341124175        5.8355902176
  I        11.2633779219        7.1176474839       19.1669690954
  I         6.9534405259       15.0117965636        0.4151769705
  I        10.2861396802        2.6917232356       12.0861027177
  I        11.2633354836        7.1176031143       12.0861027669
  I        14.5960347490        1.7341567848        0.4151768956
  I        10.2860974741       11.5435273883        6.6656892217
  I         6.9534828023        6.1599923498       18.3368701365
  I        14.5959924344       10.5858723498       18.3368700996
  I        11.2633778965       15.9694073918        6.6656893123
  I         6.9534403737        6.1600367254       12.9164566406
  I        10.2861398597       11.5434830364       24.5873826313
  I        11.2633355022       15.9693630113       24.5873825858
  I        14.5960348995       10.5859167129       12.9164566969
  I        10.2860973944       11.5435273688       19.1669690976
  I         6.9534827770        6.1599923662        5.8355903175
  I        14.5959924103       10.5858723742        5.8355902436
  I        11.2633779538       15.9694073608       19.1669691442
  I         6.9534403957        6.1600367341        0.4151767971
  I        10.2861398439       11.5434829892       12.0861028341
  I        11.2633354960       15.9693629678       12.0861027558
  I        14.5960348285       10.5859167253        0.4151768703
  I        16.6743951043       17.7503586683        9.3759903721
  I         0.5651850526       -0.0468390612       15.6265690949
  I         3.7447101443        4.3790408364       15.6265690724
  I         4.8750801160        4.4727189649        9.3759903433
  I        16.6743950296       17.7503587382       21.8772701488
  I         4.8750800938        4.4727190242       21.8772701171
  I         0.5651850687       -0.0468389788        3.1252892524
  I         3.7447101641        4.3790408636        3.1252892481
  I        16.6743952579        8.8985990004        9.3759903443
  I         0.5651849135        8.8049206387       15.6265690991
  I         3.7447101880       13.2308005846       15.6265691153
  I         4.8750800413       13.3244788796        9.3759903581
  I        16.6743952262        8.8985990082       21.8772701128
  I         4.8750801342       13.3244788981       21.8772701399
  I         0.5651849299        8.8049206404        3.1252892717
  I         3.7447101247       13.2308006422        3.1252892722
  I         8.0546051759       17.7503587104        9.3759903799
  I         9.1849750950       -0.0468390599       15.6265690891
  I        12.3645001769        4.3790408451       15.6265690824
  I        13.4948700169        4.4727190545        9.3759903690
  I         8.0546052198       17.7503588491       21.8772701792
  I        13.4948700315        4.4727190835       21.8772701258
  I         9.1849751349       -0.0468389731        3.1252892759
  I        12.3645001955        4.3790408912        3.1252892643
  I         8.0546054184        8.8985991550        9.3759903717
  I         9.1849749760        8.8049205943       15.6265691091
  I        12.3645001912       13.2308006782       15.6265691231
  I        13.4948699930       13.3244788693        9.3759903870
  I         8.0546053308        8.8985991097       21.8772701225
  I        13.4948700547       13.3244789437       21.8772701470
  I         9.1849749746        8.8049205872        3.1252892808
  I        12.3645001518       13.2308006989        3.1252892889

