      40
 i =        2, E =      -466.4114650778
 Cs         3.2070724972        3.2070724972        3.2070724955
 Cs         3.2070724967        3.2070724967        9.6212177299
 Cs         3.2070724967        9.6212177317        3.2070724950
 Cs         3.2070724963        9.6212177321        9.6212177304
 Cs         9.6212177317        3.2070724967        3.2070724950
 Cs         9.6212177321        3.2070724963        9.6212177304
 Cs         9.6212177321        9.6212177321        3.2070724945
 Cs         9.6212177326        9.6212177326        9.6212177308
 Pb         0.0000000069        0.0000000069        0.0000000069
 Pb         0.0000000069        0.0000000069        6.4141449997
 Pb         0.0000000069        6.4141449998        0.0000000069
 Pb         0.0000000069        6.4141449998        6.4141449997
 Pb         6.4141449998        0.0000000069        0.0000000069
 Pb         6.4141449998        0.0000000069        6.4141449997
 Pb         6.4141449998        6.4141449998        0.0000000069
 Pb         6.4141449998        6.4141449998        6.4141449997
  I         0.0000000037        0.0000000037        3.2070584658
  I         0.0000000037        0.0000000037        9.6212317287
  I         0.0000000037        6.4141449967        3.2070653989
  I         0.0000000037        6.4141449967        9.6212247959
  I         6.4141449967        0.0000000037        3.2070653989
  I         6.4141449967        0.0000000037        9.6212247959
  I         6.4141449967        6.4141449967        3.2070603603
  I         6.4141449967        6.4141449967        9.6212298345
  I         0.0000000037        3.2070584653        0.0000000044
  I         0.0000000037        3.2070653984        6.4141449973
  I         0.0000000037        9.6212317282        0.0000000044
  I         0.0000000037        9.6212247954        6.4141449973
  I         6.4141449967        3.2070653984        0.0000000044
  I         6.4141449967        3.2070603598        6.4141449973
  I         6.4141449967        9.6212247954        0.0000000044
  I         6.4141449967        9.6212298340        6.4141449973
  I         3.2070584653        0.0000000037        0.0000000044
  I         3.2070653984        0.0000000037        6.4141449973
  I         3.2070653984        6.4141449967        0.0000000044
  I         3.2070603598        6.4141449967        6.4141449973
  I         9.6212317282        0.0000000037        0.0000000044
  I         9.6212247954        0.0000000037        6.4141449973
  I         9.6212247954        6.4141449967        0.0000000044
  I         9.6212298340        6.4141449967        6.4141449973

