      40
 i =        2, E =      -466.7591090673
 Cs         3.2070724968        3.2070724968        3.2070724950
 Cs         3.2070724963        3.2070724963        9.6212177206
 Cs         3.2070724963        9.6212177224        3.2070724945
 Cs         3.2070724958        9.6212177228        9.6212177211
 Cs         9.6212177224        3.2070724963        3.2070724945
 Cs         9.6212177228        3.2070724958        9.6212177211
 Cs         9.6212177228        9.6212177228        3.2070724941
 Cs         9.6212177233        9.6212177233        9.6212177215
 Pb         0.0000000063        0.0000000063        0.0000000063
 Pb         0.0000000063        0.0000000063        6.4141449991
 Pb         0.0000000063        6.4141449992        0.0000000063
 Pb         0.0000000063        6.4141449992        6.4141449991
 Pb         6.4141449992        0.0000000063        0.0000000063
 Pb         6.4141449992        0.0000000063        6.4141449991
 Pb         6.4141449992        6.4141449992        0.0000000063
 Pb         6.4141449992        6.4141449992        6.4141449991
  I         0.0000000064        0.0000000064        3.2070584654
  I         0.0000000064        0.0000000064        9.6212317293
  I         0.0000000064        6.4141449994        3.2070653985
  I         0.0000000064        6.4141449994        9.6212247964
  I         6.4141449994        0.0000000064        3.2070653985
  I         6.4141449994        0.0000000064        9.6212247964
  I         6.4141449994        6.4141449994        3.2070603599
  I         6.4141449994        6.4141449994        9.6212298350
  I         0.0000000064        3.2070584649        0.0000000071
  I         0.0000000064        3.2070653980        6.4141450001
  I         0.0000000064        9.6212317288        0.0000000071
  I         0.0000000064        9.6212247959        6.4141450001
  I         6.4141449994        3.2070653980        0.0000000071
  I         6.4141449994        3.2070603594        6.4141450001
  I         6.4141449994        9.6212247959        0.0000000071
  I         6.4141449994        9.6212298345        6.4141450001
  I         3.2070584649        0.0000000064        0.0000000071
  I         3.2070653980        0.0000000064        6.4141450001
  I         3.2070653980        6.4141449994        0.0000000071
  I         3.2070603594        6.4141449994        6.4141450001
  I         9.6212317288        0.0000000064        0.0000000071
  I         9.6212247959        0.0000000064        6.4141450001
  I         9.6212247959        6.4141449994        0.0000000071
  I         9.6212298345        6.4141449994        6.4141450001

